LAMMPS (2 Aug 2023 - Update 2)

echo both

# Define temperature parameters
variable	temperature equal 300.0 # Simulation temperature in Kelvin
variable	tempDamp equal 100.0 # Relaxation time of themostat - 0.1 ps

# Define pressure parameters
variable	pressure equal 1.0 # Pressure in bars
variable	pressureDamp equal 500.0 # Relaxation time of the barostat 0.5 ps

# Define random seed
variable	seed equal 98475

# Simulation setup
units		real
atom_style	full
variable	out_freq equal 1000 # Thermo output frequency
variable	out_freq2 equal 1000 # Dump output frequency
neigh_modify    delay 10 every 1 # Neighbor list setup

### TIP4P/Ew Parameters ###
pair_style     lj/cut/coul/long 5.0# This cutoff is too short for a real calculation
# Load configuration
read_data       water_test.data
Reading data file ...
  orthogonal box = (0 0 0) to (15.5 15.5 15.5)
  reading atoms ...
  318 atoms
  scanning bonds ...
  scanning angles ...
  reading bonds ...
  212 bonds
  reading angles ...
  106 angles
Finding 1-2 1-3 1-4 neighbors ...
     2 = max # of 1-2 neighbors
     1 = max # of 1-3 neighbors
     1 = max # of 1-4 neighbors
     2 = max # of special neighbors

# create groups ###

group hy type 1
212 atoms in group hy
group ox type 2
106 atoms in group ox

## set charges - beside manually ###
set group ox charge -0.830
Setting atom values ...
  106 settings made for charge
set group hy charge 0.415
Setting atom values ...
  212 settings made for charge

# Water TIP3P
pair_coeff      1 1 0.0 0.0
pair_coeff      2 2 0.102 3.188
pair_coeff      1 2 0.0 0.0

bond_style      harmonic
bond_coeff      1 450 0.9572
angle_style     harmonic
angle_coeff     1 55 104.52
kspace_style    pppm 1e-2 # This value is too large for a real calculation

timestep	2.0 # Timestep 2 fs
thermo          1000
thermo_style 	custom step time temp pe ke etotal press density lx ly lz
restart 	1000 restart restart2

# Perform minimization
minimize 1.0e-2 1.0e-3 100 1000
PPPM initialization ...
  G vector (1/distance) = 0.40023582
  grid = 8 8 8
  stencil order = 5
  estimated absolute RMS force accuracy = 0.77072025
  estimated relative force accuracy = 0.0023210011
  3d grid and FFT values/proc = 1815 128
Generated 0 of 1 mixed pair_coeff terms from geometric mixing rule
Step          Time           Temp          PotEng         KinEng         TotEng         Press         Density           Lx             Ly             Lz
0   0              0             -274.99323      0             -274.99323      15134.204      0.85153742     15.5           15.5           15.5
Loop time of 0.012528 on 4 procs for 14 steps with 318 atoms

Minimization stats:
  Stopping criterion = energy tolerance
  Energy initial, next-to-last, final =
  Force two-norm initial, final = 1989.5503 62.374346
  Force max component initial, final = 1204.7316 9.8786515
  Final line search alpha, max atom move = 0.0035406413 0.034976761
  Iterations, force evaluations = 14 19

# Write trajectory to file
dump           	myDump all dcd 1000 out.dcd
dump           	myDump2 all xyz 1000 out.xyz
#dump_modify    	myDump unwrap yes

# Start simulation

reset_timestep 	0

fix             1 all temp/csvr 300 300 100 98475
fix             2 all shake 0.0001 20 100000 t 1 2 # Shake algorithm
Finding SHAKE clusters ...
       0 = # of size 2 clusters
     106 = # of size 3 clusters
       0 = # of size 4 clusters
       0 = # of frozen angles
  find clusters CPU = 0.000 seconds
#fix             3 all nve
fix             3 all nph iso 1 1 500
fix 		4 all momentum 10000 linear 1 1 1 # Set total linear momentum to zero every 10000 steps

velocity        all create 300 98475 dist gaussian

run 50000
PPPM initialization ...
  G vector (1/distance) = 0.40023582
  grid = 8 8 8
  stencil order = 5
  estimated absolute RMS force accuracy = 0.77072025
  estimated relative force accuracy = 0.0023210011
  3d grid and FFT values/proc = 1815 128
Generated 0 of 1 mixed pair_coeff terms from geometric mixing rule
SHAKE stats (type/ave/delta/count) on step 0
Bond:   1   0.973406  0.0453782        212
Step          Time           Temp          PotEng         KinEng         TotEng         Press         Density           Lx             Ly             Lz
0   0              300           -977.43396      220.28186     -757.15209     -3563.7749      0.85153742     15.5           15.5           15.5
Averages over the last 26 of 51 rows, steps 25000 to 50000:
Temp PotEng KinEng TotEng Press Density Lx Ly Lz
294.946 -1011.04 216.571 -794.471 -79.0772 0.947781 14.9591 14.9591 14.9591
Loop time of 14.3742 on 4 procs for 50000 steps with 318 atoms
